xflr5 v6.58

Plane name :        FunCub
Polar name :        T1-5.0 m/s-VLM2-b15.0°
Freestream speed :   5.000 m/s


   alpha      Beta       CL          CDi        CDv        CD         CY         Cl         Cm         Cn        Cni       QInf        XCP
   -4.000    15.000  -0.220582   0.015121   0.029091   0.044213  -0.092556  -0.012242   0.070405   0.034270   0.033368    5.0000     0.1528
   -3.000    15.000  -0.138482   0.013545   0.028677   0.042221  -0.093476  -0.010580   0.054596   0.035545   0.034573    5.0000     0.1594
   -2.000    15.000  -0.056697   0.012988   0.030756   0.043744  -0.095071  -0.008905   0.039339   0.036945   0.035759    5.0000     0.1858
   -1.000    15.000   0.024990   0.013179   0.031353   0.044531  -0.097157  -0.007221   0.020362   0.038157   0.036919    5.0000     0.0352
    0.000    15.000   0.111620   0.014321   0.035780   0.050101  -0.098797  -0.006027  -0.005665   0.039462   0.037753    5.0000     0.1351


