xflr5 v6.61

Plane name :        FunCub
Polar name :        T1-10.0 m/s-VLM2
Freestream speed :  10.000 m/s


   alpha      Beta       CL          CDi        CDv        CD         CY         Cl         Cm         Cn        Cni       QInf        XCP
   -9.500     0.000  -0.694427   0.035604   0.164470   0.200074  -0.000000   0.000000   0.149389   0.000000   0.000000   10.0000     0.1337
   -9.000     0.000  -0.652717   0.031637   0.126698   0.158335  -0.000000   0.000000   0.142661   0.000000   0.000000   10.0000     0.1342
   -8.500     0.000  -0.610852   0.027892   0.056431   0.084323  -0.000000   0.000000   0.136301   0.000000   0.000000   10.0000     0.1348
   -8.000     0.000  -0.568839   0.024373   0.030281   0.054655  -0.000000   0.000000   0.129239   0.000000   0.000000   10.0000     0.1355
   -7.500     0.000  -0.526690   0.021083   0.028326   0.049410  -0.000000   0.000000   0.121803   0.000000   0.000000   10.0000     0.1364
   -7.000     0.000  -0.484412   0.018024   0.027090   0.045114  -0.000000   0.000000   0.114315   0.000000   0.000000   10.0000     0.1374
   -6.500     0.000  -0.442016   0.015199   0.026137   0.041336  -0.000000   0.000000   0.106784   0.000000   0.000000   10.0000     0.1386
   -6.000     0.000  -0.399511   0.012610   0.025294   0.037905  -0.000000   0.000000   0.099214   0.000000   0.000000   10.0000     0.1402
   -5.500     0.000  -0.356906   0.010259   0.024598   0.034857  -0.000000   0.000000   0.091608   0.000000   0.000000   10.0000     0.1421
   -5.000     0.000  -0.314211   0.008149   0.023859   0.032008  -0.000000   0.000000   0.083970   0.000000   0.000000   10.0000     0.1445
   -4.500     0.000  -0.271435   0.006280   0.023156   0.029436  -0.000000   0.000000   0.076302   0.000000   0.000000   10.0000     0.1478
   -4.000     0.000  -0.228588   0.004654   0.022482   0.027136  -0.000000   0.000000   0.068606   0.000000   0.000000   10.0000     0.1523
   -3.500     0.000  -0.185679   0.003273   0.021760   0.025033  -0.000000   0.000000   0.060886   0.000000   0.000000   10.0000     0.1590
   -3.000     0.000  -0.142719   0.002138   0.020961   0.023098  -0.000000   0.000000   0.053144   0.000000   0.000000   10.0000     0.1697
   -2.500     0.000  -0.099717   0.001250   0.019541   0.020791  -0.000000   0.000000   0.045387   0.000000  -0.000000   10.0000     0.1897
   -2.000     0.000  -0.056683   0.000609   0.017667   0.018276   0.000000   0.000000   0.037614  -0.000000  -0.000000   10.0000     0.2401
   -1.500     0.000  -0.013627   0.000216   0.017318   0.017534   0.000000   0.000000   0.029814  -0.000000  -0.000000   10.0000     0.6091
   -1.000     0.000   0.029442   0.000073   0.017214   0.017287   0.000000  -0.000000   0.022000  -0.000000  -0.000000   10.0000    -0.1016
   -0.500     0.000   0.072515   0.000178   0.017239   0.017417   0.000000  -0.000000   0.014175  -0.000000  -0.000000   10.0000     0.0319
    0.000     0.000   0.115580   0.000532   0.017267   0.017799   0.000000  -0.000000   0.006343  -0.000000  -0.000000   10.0000     0.0660
    0.500     0.000   0.158628   0.001135   0.017292   0.018427   0.000000  -0.000000  -0.001494  -0.000000  -0.000000   10.0000     0.0815
    1.000     0.000   0.201650   0.001986   0.017284   0.019270   0.000000  -0.000000  -0.009334  -0.000000  -0.000000   10.0000     0.0904
    1.500     0.000   0.244635   0.003085   0.017254   0.020339   0.000000  -0.000000  -0.017173  -0.000000  -0.000000   10.0000     0.0962
    2.000     0.000   0.287575   0.004431   0.017201   0.021632   0.000000  -0.000000  -0.025010  -0.000000  -0.000000   10.0000     0.1003
    2.500     0.000   0.330458   0.006024   0.017074   0.023099   0.000000  -0.000000  -0.032841  -0.000000  -0.000000   10.0000     0.1033
    3.000     0.000   0.373276   0.007862   0.016953   0.024815   0.000000  -0.000000  -0.040666  -0.000000  -0.000000   10.0000     0.1057
    3.500     0.000   0.416019   0.009944   0.016910   0.026854   0.000000  -0.000000  -0.048481  -0.000000  -0.000000   10.0000     0.1075
    4.000     0.000   0.458677   0.012268   0.016965   0.029233   0.000000  -0.000000  -0.056284  -0.000000  -0.000000   10.0000     0.1091
    4.500     0.000   0.501241   0.014833   0.017137   0.031970   0.000000  -0.000000  -0.064074  -0.000000  -0.000000   10.0000     0.1104
    5.000     0.000   0.543700   0.017637   0.017431   0.035068   0.000000  -0.000000  -0.071846  -0.000000  -0.000000   10.0000     0.1115
    5.500     0.000   0.586046   0.020678   0.017822   0.038500   0.000000  -0.000000  -0.079599  -0.000000  -0.000000   10.0000     0.1124
    6.000     0.000   0.628270   0.023954   0.018280   0.042233   0.000000  -0.000000  -0.087329  -0.000000  -0.000000   10.0000     0.1133
    6.500     0.000   0.670360   0.027462   0.018766   0.046228   0.000000  -0.000000  -0.095034  -0.000000  -0.000000   10.0000     0.1140
    7.000     0.000   0.712310   0.031199   0.019267   0.050466   0.000000  -0.000000  -0.102712  -0.000000  -0.000000   10.0000     0.1147
    7.500     0.000   0.754108   0.035164   0.019775   0.054939   0.000000  -0.000000  -0.110360  -0.000000  -0.000000   10.0000     0.1153
    8.000     0.000   0.795747   0.039353   0.020302   0.059655   0.000000  -0.000000  -0.117977  -0.000000  -0.000000   10.0000     0.1159
    8.500     0.000   0.837216   0.043764   0.020848   0.064612   0.000000  -0.000000  -0.125560  -0.000000  -0.000000   10.0000     0.1164
    9.000     0.000   0.878507   0.048391   0.021409   0.069801   0.000000  -0.000000  -0.133106  -0.000000  -0.000000   10.0000     0.1169
    9.500     0.000   0.919612   0.053234   0.021975   0.075209   0.000000  -0.000000  -0.140612  -0.000000  -0.000000   10.0000     0.1173
   10.000     0.000   0.960520   0.058287   0.022535   0.080822   0.000000  -0.000000  -0.148077  -0.000000  -0.000000   10.0000     0.1178


