xflr5 v6.32

Plane name :        Maja with Body
Polar name :        T1-30.0 m/s-VLM2-b30.0°
Freestream speed :  30.000 m/s


   alpha      Beta       CL          CDi        CDv        CD         CY         Cl         Cm         Cn        Cni       QInf        XCP
   -4.000    30.000  -0.060385   0.038634   0.013335   0.051969  -0.158501  -0.039445   0.085001   0.032884   0.024229   30.0000     0.4119
   -2.000    30.000   0.067210   0.038056   0.011399   0.049455  -0.159251  -0.037075   0.076153   0.032780   0.023963   30.0000    -0.2013
    0.000    30.000   0.195505   0.039079   0.010218   0.049297  -0.158157  -0.035119   0.061841   0.032464   0.023673   30.0000    -0.0106
    6.000    30.000   0.604076   0.052046   0.008919   0.060965  -0.143395  -0.031519  -0.002510   0.031560   0.022953   30.0000     0.0498
    8.000    30.000   0.733960   0.059365   0.009637   0.069002  -0.132287  -0.031025  -0.029077   0.030828   0.022370   30.0000     0.0542
   12.000    30.000   1.005805   0.080335   0.013285   0.093620  -0.108249  -0.031194  -0.091883   0.030578   0.022457   30.0000     0.0583


