xflr5 v6.32

Plane name :        Maja with Body
Polar name :        T1-22.0 m/s-VLM2-b30.0°
Freestream speed :  22.000 m/s


   alpha      Beta       CL          CDi        CDv        CD         CY         Cl         Cm         Cn        Cni       QInf        XCP
   -4.000    30.000  -0.060385   0.038634   0.005494   0.044128  -0.158501  -0.039445   0.083061   0.032953   0.024229   22.0000     0.4119
   -2.000    30.000   0.067210   0.038056   0.003415   0.041472  -0.159251  -0.037075   0.074025   0.033007   0.023963   22.0000    -0.2013
    0.000    30.000   0.195505   0.039079   0.003742   0.042821  -0.158157  -0.035119   0.060059   0.032760   0.023673   22.0000    -0.0106
    6.000    30.000   0.604076   0.052046   0.009936   0.061983  -0.143395  -0.031519  -0.002169   0.031669   0.022953   22.0000     0.0498
    8.000    30.000   0.733960   0.059365   0.010757   0.070122  -0.132287  -0.031025  -0.028734   0.030901   0.022370   22.0000     0.0542


