xflr5 v6.32

Plane name :        Maja with Body
Polar name :        T1-18.0 m/s-VLM2-b30.0°
Freestream speed :  18.000 m/s


   alpha      Beta       CL          CDi        CDv        CD         CY         Cl         Cm         Cn        Cni       QInf        XCP
   -4.000    30.000  -0.060385   0.038634   0.018301   0.056935  -0.158501  -0.039445   0.086609   0.032670   0.024229   18.0000     0.4119
   -2.000    30.000   0.067210   0.038056   0.014297   0.052354  -0.159251  -0.037075   0.077141   0.032700   0.023963   18.0000    -0.2013
    0.000    30.000   0.195505   0.039079   0.012356   0.051436  -0.158157  -0.035119   0.062566   0.032457   0.023673   18.0000    -0.0106
    6.000    30.000   0.604076   0.052046   0.011076   0.063122  -0.143395  -0.031519  -0.001876   0.031631   0.022953   18.0000     0.0498
    8.000    30.000   0.733960   0.059365   0.011791   0.071156  -0.132287  -0.031025  -0.028470   0.030900   0.022370   18.0000     0.0542


