xflr5 v6.32

Plane name :        Maja with Body
Polar name :        T1-26.0 m/s-VLM2-b30.0°
Freestream speed :  26.000 m/s


   alpha      Beta       CL          CDi        CDv        CD         CY         Cl         Cm         Cn        Cni       QInf        XCP
   -4.000    30.000  -0.060385   0.038634   0.014128   0.052762  -0.158501  -0.039445   0.085257   0.032901   0.024229   26.0000     0.4119
   -2.000    30.000   0.067210   0.038056   0.012002   0.050058  -0.159251  -0.037075   0.076365   0.032778   0.023963   26.0000    -0.2013
    0.000    30.000   0.195505   0.039079   0.010719   0.049798  -0.158157  -0.035119   0.062015   0.032464   0.023673   26.0000    -0.0106
    6.000    30.000   0.604076   0.052046   0.009426   0.061472  -0.143395  -0.031519  -0.002355   0.031584   0.022953   26.0000     0.0498
    8.000    30.000   0.733960   0.059365   0.010142   0.069507  -0.132287  -0.031025  -0.028926   0.030853   0.022370   26.0000     0.0542


