xflr5 v6.32

Plane name :        Maja with Body
Polar name :        T1-22.0 m/s-VLM2-b20.0°
Freestream speed :  22.000 m/s


   alpha      Beta       CL          CDi        CDv        CD         CY         Cl         Cm         Cn        Cni       QInf        XCP
   -4.000    20.000  -0.081823   0.018865   0.004917   0.023782  -0.106614  -0.028693   0.021187   0.024093   0.017575   22.0000     0.1405
   -2.000    20.000   0.068913   0.018277   0.003094   0.021371  -0.106971  -0.026736   0.014549   0.024138   0.017420   22.0000     0.0189
    0.000    20.000   0.219406   0.019392   0.003515   0.022907  -0.105996  -0.025086   0.004840   0.023988   0.017220   22.0000     0.0612
    2.000    20.000   0.370885   0.020801   0.007953   0.028754  -0.104795  -0.023739  -0.008553   0.023938   0.017010   22.0000     0.0681
    4.000    20.000   0.528289   0.025942   0.009465   0.035407  -0.100605  -0.022697  -0.027710   0.023378   0.016755   22.0000     0.0696
    6.000    20.000   0.683068   0.034507   0.010268   0.044775  -0.094260  -0.021974  -0.052036   0.023070   0.016598   22.0000     0.0705
    8.000    20.000   0.835262   0.042991   0.011595   0.054586  -0.086196  -0.021563  -0.080296   0.022480   0.016162   22.0000     0.0708


