xflr5 v6.32

Plane name :        Maja with Body
Polar name :        T1-14.0 m/s-VLM2-b20.0°
Freestream speed :  14.000 m/s


   alpha      Beta       CL          CDi        CDv        CD         CY         Cl         Cm         Cn        Cni       QInf        XCP
   -4.000    20.000  -0.081823   0.018865   0.020270   0.039135  -0.106614  -0.028693   0.025461   0.023774   0.017575   14.0000     0.1405
   -2.000    20.000   0.068913   0.018277   0.015998   0.034275  -0.106971  -0.026736   0.018250   0.023907   0.017420   14.0000     0.0189
    0.000    20.000   0.219406   0.019392   0.013159   0.032551  -0.105996  -0.025086   0.007682   0.023716   0.017220   14.0000     0.0612
    2.000    20.000   0.370885   0.020801   0.011990   0.032792  -0.104795  -0.023739  -0.007366   0.023621   0.017010   14.0000     0.0681
    4.000    20.000   0.528289   0.025942   0.012060   0.038002  -0.100605  -0.022697  -0.026948   0.023327   0.016755   14.0000     0.0696
    6.000    20.000   0.683068   0.034507   0.012650   0.047157  -0.094260  -0.021974  -0.051350   0.023080   0.016598   14.0000     0.0705
    8.000    20.000   0.835262   0.042991   0.013802   0.056793  -0.086196  -0.021563  -0.079673   0.022526   0.016162   14.0000     0.0708


