xflr5 v6.32

Plane name :        Maja with Body
Polar name :        T1-18.0 m/s-VLM2-b20.0°
Freestream speed :  18.000 m/s


   alpha      Beta       CL          CDi        CDv        CD         CY         Cl         Cm         Cn        Cni       QInf        XCP
   -4.000    20.000  -0.081823   0.018865   0.017957   0.036822  -0.106614  -0.028693   0.024739   0.023873   0.017575   18.0000     0.1405
   -2.000    20.000   0.068913   0.018277   0.014085   0.032362  -0.106971  -0.026736   0.017657   0.023942   0.017420   18.0000     0.0189
    0.000    20.000   0.219406   0.019392   0.011822   0.031213  -0.105996  -0.025086   0.007260   0.023747   0.017220   18.0000     0.0612
    2.000    20.000   0.370885   0.020801   0.010600   0.031401  -0.104795  -0.023739  -0.007796   0.023603   0.017010   18.0000     0.0681
    4.000    20.000   0.528289   0.025942   0.010671   0.036614  -0.100605  -0.022697  -0.027370   0.023306   0.016755   18.0000     0.0696
    6.000    20.000   0.683068   0.034507   0.011300   0.045807  -0.094260  -0.021974  -0.051750   0.023059   0.016598   18.0000     0.0705
    8.000    20.000   0.835262   0.042991   0.012515   0.055506  -0.086196  -0.021563  -0.080041   0.022505   0.016162   18.0000     0.0708


