xflr5 v6.32

Plane name :        Maja with Body
Polar name :        T1-14.0 m/s-VLM2-b30.0°
Freestream speed :  14.000 m/s


   alpha      Beta       CL          CDi        CDv        CD         CY         Cl         Cm         Cn        Cni       QInf        XCP
   -4.000    30.000  -0.060385   0.038634   0.020516   0.059150  -0.158501  -0.039445   0.087314   0.032585   0.024229   14.0000     0.4119
   -2.000    30.000   0.067210   0.038056   0.016207   0.054263  -0.159251  -0.037075   0.077734   0.032677   0.023963   14.0000    -0.2013
    0.000    30.000   0.195505   0.039079   0.013776   0.052855  -0.158157  -0.035119   0.063013   0.032425   0.023673   14.0000    -0.0106
    6.000    30.000   0.604076   0.052046   0.012435   0.064481  -0.143395  -0.031519  -0.001472   0.031656   0.022953   14.0000     0.0498
    8.000    30.000   0.733960   0.059365   0.013120   0.072484  -0.132287  -0.031025  -0.028088   0.030925   0.022370   14.0000     0.0542


