xflr5 v6.32

Plane name :        Maja with Body
Polar name :        T1-10.0 m/s-VLM2-b30.0°
Freestream speed :  10.000 m/s


   alpha      Beta       CL          CDi        CDv        CD         CY         Cl         Cm         Cn        Cni       QInf        XCP
   -4.000    30.000  -0.060385   0.038634   0.024387   0.063021  -0.158501  -0.039445   0.088461   0.032586   0.024229   10.0000     0.4119
   -2.000    30.000   0.067210   0.038056   0.019559   0.057615  -0.159251  -0.037075   0.078754   0.032640   0.023963   10.0000    -0.2013
    0.000    30.000   0.195505   0.039079   0.016754   0.055833  -0.158157  -0.035119   0.063920   0.032447   0.023673   10.0000    -0.0106
    6.000    30.000   0.604076   0.052046   0.014993   0.067039  -0.143395  -0.031519  -0.000705   0.031693   0.022953   10.0000     0.0498
    8.000    30.000   0.733960   0.059365   0.015509   0.074874  -0.132287  -0.031025  -0.027398   0.030957   0.022370   10.0000     0.0542


