xflr5 v6.32

Plane name :        Maja with Body
Polar name :        T1-10.0 m/s-VLM2-b20.0°
Freestream speed :  10.000 m/s


   alpha      Beta       CL          CDi        CDv        CD         CY         Cl         Cm         Cn        Cni       QInf        XCP
   -4.000    20.000  -0.081823   0.018865   0.024459   0.043324  -0.106614  -0.028693   0.026673   0.023797   0.017575   10.0000     0.1405
   -2.000    20.000   0.068913   0.018277   0.019264   0.037541  -0.106971  -0.026736   0.019240   0.023873   0.017420   10.0000     0.0189
    0.000    20.000   0.219406   0.019392   0.016011   0.035403  -0.105996  -0.025086   0.008553   0.023754   0.017220   10.0000     0.0612
    2.000    20.000   0.370885   0.020801   0.014792   0.035594  -0.104795  -0.023739  -0.006511   0.023645   0.017010   10.0000     0.0681
    4.000    20.000   0.528289   0.025942   0.014695   0.040637  -0.100605  -0.022697  -0.026155   0.023349   0.016755   10.0000     0.0696
    6.000    20.000   0.683068   0.034507   0.015083   0.049590  -0.094260  -0.021974  -0.050635   0.023101   0.016598   10.0000     0.0705
    8.000    20.000   0.835262   0.042991   0.016060   0.059051  -0.086196  -0.021563  -0.079028   0.022554   0.016162   10.0000     0.0708


