xflr5 v6.61

Plane name :        FunCub_Flaps100_Eta10
Polar name :        T1-10.0 m/s-VLM2-b15.0°
Freestream speed :  10.000 m/s


   alpha      Beta       CL          CDi        CDv        CD         CY         Cl         Cm         Cn        Cni       QInf        XCP
   -6.500    15.000   0.196235   0.040238   0.049075   0.089313  -0.094785  -0.019880  -0.176518   0.037339   0.036522   10.0000     0.3148
   -6.000    15.000   0.232928   0.041479   0.048556   0.090035  -0.096279  -0.019204  -0.186091   0.037976   0.037287   10.0000     0.2864
   -5.500    15.000   0.269552   0.042957   0.048450   0.091407  -0.097964  -0.018503  -0.195642   0.038736   0.038044   10.0000     0.2659
   -5.000    15.000   0.305991   0.044654   0.048071   0.092725  -0.099847  -0.017762  -0.204831   0.039549   0.038798   10.0000     0.2502


