xflr5 v6.61

Plane name :        FunCub_Flaps0_Eta2
Polar name :        T1-10.0 m/s-VLM2
Freestream speed :  10.000 m/s


   alpha      Beta       CL          CDi        CDv        CD         CY         Cl         Cm         Cn        Cni       QInf        XCP
   -9.500     0.000  -0.735356   0.032670   0.167157   0.199827  -0.000000   0.000000   0.215925   0.000000   0.000000   10.0000     0.1537
   -9.000     0.000  -0.692156   0.029145   0.131440   0.160585  -0.000000   0.000000   0.207516   0.000000   0.000000   10.0000     0.1549
   -8.500     0.000  -0.648809   0.025813   0.062117   0.087930  -0.000000   0.000000   0.199481   0.000000   0.000000   10.0000     0.1563
   -8.000     0.000  -0.605322   0.022676   0.030718   0.053394  -0.000000   0.000000   0.190814   0.000000   0.000000   10.0000     0.1579
   -7.500     0.000  -0.561705   0.019737   0.028558   0.048295  -0.000000   0.000000   0.181688   0.000000   0.000000   10.0000     0.1598
   -7.000     0.000  -0.517965   0.016999   0.027213   0.044212  -0.000000   0.000000   0.172497   0.000000   0.000000   10.0000     0.1620
   -6.500     0.000  -0.474112   0.014464   0.026199   0.040663  -0.000000   0.000000   0.163254   0.000000   0.000000   10.0000     0.1647
   -6.000     0.000  -0.430153   0.012134   0.025330   0.037464  -0.000000   0.000000   0.153961   0.000000   0.000000   10.0000     0.1679
   -5.500     0.000  -0.386099   0.010010   0.024616   0.034626  -0.000000   0.000000   0.144621   0.000000   0.000000   10.0000     0.1719
   -5.000     0.000  -0.341957   0.008095   0.023887   0.031981  -0.000000   0.000000   0.135238   0.000000   0.000000   10.0000     0.1770
   -4.500     0.000  -0.297736   0.006390   0.023180   0.029569  -0.000000   0.000000   0.125814   0.000000   0.000000   10.0000     0.1836
   -4.000     0.000  -0.253446   0.004896   0.022509   0.027404  -0.000000   0.000000   0.116352   0.000000   0.000000   10.0000     0.1926
   -3.500     0.000  -0.209096   0.003615   0.021793   0.025408  -0.000000   0.000000   0.106854   0.000000   0.000000   10.0000     0.2053
   -3.000     0.000  -0.164693   0.002548   0.020987   0.023535  -0.000000   0.000000   0.097325   0.000000   0.000000   10.0000     0.2250
   -2.500     0.000  -0.120249   0.001696   0.019635   0.021332  -0.000000   0.000000   0.087771   0.000000   0.000000   10.0000     0.2593
   -2.000     0.000  -0.075770   0.001060   0.017656   0.018716  -0.000000   0.000000   0.078195   0.000000   0.000000   10.0000     0.3340
   -1.500     0.000  -0.031267   0.000639   0.017277   0.017916  -0.000000   0.000000   0.068583   0.000000   0.000000   10.0000     0.6213
   -1.000     0.000   0.013252   0.000436   0.017170   0.017606   0.000000  -0.000000   0.058948  -0.000000  -0.000000   10.0000    -1.0221
   -0.500     0.000   0.057778   0.000449   0.017206   0.017655   0.000000  -0.000000   0.049297  -0.000000  -0.000000   10.0000    -0.1326
    0.000     0.000   0.102300   0.000680   0.017239   0.017919   0.000000  -0.000000   0.039632  -0.000000  -0.000000   10.0000    -0.0174
    0.500     0.000   0.146811   0.001127   0.017266   0.018393   0.000000  -0.000000   0.029956  -0.000000  -0.000000   10.0000     0.0279
    1.000     0.000   0.191302   0.001792   0.017257   0.019049   0.000000  -0.000000   0.020274  -0.000000  -0.000000   10.0000     0.0522
    1.500     0.000   0.235762   0.002673   0.017227   0.019899   0.000000  -0.000000   0.010587  -0.000000  -0.000000   10.0000     0.0673
    2.000     0.000   0.280184   0.003769   0.017175   0.020945   0.000000  -0.000000   0.000899  -0.000000  -0.000000   10.0000     0.0776
    2.500     0.000   0.324558   0.005081   0.017053   0.022134   0.000000  -0.000000  -0.008788  -0.000000  -0.000000   10.0000     0.0851
    3.000     0.000   0.368875   0.006608   0.016934   0.023541   0.000000  -0.000000  -0.018470  -0.000000  -0.000000   10.0000     0.0908
    3.500     0.000   0.413126   0.008347   0.016889   0.025236   0.000000  -0.000000  -0.028144  -0.000000  -0.000000   10.0000     0.0953
    4.000     0.000   0.457302   0.010299   0.016945   0.027245   0.000000  -0.000000  -0.037807  -0.000000  -0.000000   10.0000     0.0989
    4.500     0.000   0.501395   0.012462   0.017123   0.029584   0.000000  -0.000000  -0.047457  -0.000000  -0.000000   10.0000     0.1019
    5.000     0.000   0.545394   0.014833   0.017430   0.032264   0.000000  -0.000000  -0.057091  -0.000000  -0.000000   10.0000     0.1045
    5.500     0.000   0.589293   0.017413   0.017847   0.035259   0.000000  -0.000000  -0.066705  -0.000000  -0.000000   10.0000     0.1066
    6.000     0.000   0.633081   0.020198   0.018330   0.038528   0.000000  -0.000000  -0.076296  -0.000000  -0.000000   10.0000     0.1085
    6.500     0.000   0.676750   0.023187   0.018838   0.042025   0.000000  -0.000000  -0.085859  -0.000000  -0.000000   10.0000     0.1102
    7.000     0.000   0.720292   0.026377   0.019354   0.045731   0.000000  -0.000000  -0.095393  -0.000000  -0.000000   10.0000     0.1116
    7.500     0.000   0.763697   0.029767   0.019882   0.049649   0.000000  -0.000000  -0.104894  -0.000000  -0.000000   10.0000     0.1129
    8.000     0.000   0.806957   0.033353   0.020429   0.053782   0.000000  -0.000000  -0.114361  -0.000000  -0.000000   10.0000     0.1141
    8.500     0.000   0.850065   0.037134   0.020994   0.058128   0.000000  -0.000000  -0.123789  -0.000000  -0.000000   10.0000     0.1151
    9.000     0.000   0.893010   0.041106   0.021575   0.062681   0.000000  -0.000000  -0.133176  -0.000000  -0.000000   10.0000     0.1161
    9.500     0.000   0.935786   0.045267   0.022154   0.067421   0.000000  -0.000000  -0.142518  -0.000000  -0.000000   10.0000     0.1170
   10.000     0.000   0.978383   0.049613   0.022726   0.072340   0.000000  -0.000000  -0.151813  -0.000000  -0.000000   10.0000     0.1179


