xflr5 v6.61

Plane name :        FunCub_Flaps50_Eta6
Polar name :        T1-10.0 m/s-VLM2-b15.0°
Freestream speed :  10.000 m/s


   alpha      Beta       CL          CDi        CDv        CD         CY         Cl         Cm         Cn        Cni       QInf        XCP
   -5.500    15.000  -0.026435   0.018589   0.031508   0.050097  -0.100922  -0.013774  -0.042973   0.038405   0.037765   10.0000    -0.3411
   -5.000    15.000   0.012232   0.018793   0.031402   0.050195  -0.102062  -0.012983  -0.053159   0.039200   0.038542   10.0000     1.4294
   -4.500    15.000   0.050848   0.019262   0.031176   0.050439  -0.103404  -0.012168  -0.063364   0.040044   0.039311   10.0000     0.4182
   -4.000    15.000   0.089403   0.019980   0.030762   0.050742  -0.104929  -0.011328  -0.073574   0.040863   0.040072   10.0000     0.2968
   -3.500    15.000   0.127894   0.020927   0.030432   0.051360  -0.106615  -0.010466  -0.083800   0.041605   0.040823   10.0000     0.2496
   -3.000    15.000   0.166356   0.022099   0.030570   0.052670  -0.108428  -0.009588  -0.094116   0.042304   0.041561   10.0000     0.2247


