xflr5 v6.61

Plane name :        FunCub_Flaps100_Eta10
Polar name :        T1-18.0 m/s-VLM2-b15.0°
Freestream speed :  18.000 m/s


   alpha      Beta       CL          CDi        CDv        CD         CY         Cl         Cm         Cn        Cni       QInf        XCP
   -6.500    15.000   0.196235   0.040238   0.042435   0.082672  -0.094785  -0.019880  -0.176921   0.036949   0.036522   18.0000     0.3148
   -6.000    15.000   0.232928   0.041479   0.042470   0.083949  -0.096279  -0.019204  -0.186564   0.037743   0.037287   18.0000     0.2864
   -5.500    15.000   0.269552   0.042957   0.042257   0.085215  -0.097964  -0.018503  -0.196139   0.038549   0.038044   18.0000     0.2659
   -5.000    15.000   0.305991   0.044654   0.042123   0.086777  -0.099847  -0.017762  -0.205399   0.039318   0.038798   18.0000     0.2502
   -4.500    15.000   0.343558   0.046679   0.041714   0.088392  -0.101759  -0.017186  -0.217788   0.040046   0.039490   18.0000     0.2398
   -4.000    15.000   0.378211   0.048652   0.041412   0.090064  -0.104188  -0.016222  -0.223629   0.040902   0.040299   18.0000     0.2282
   -3.500    15.000   0.414653   0.050768   0.041048   0.091816  -0.106467  -0.015523  -0.233715   0.041575   0.040999   18.0000     0.2207


