xflr5 v6.61

Plane name :        FunCub_Flaps50_Eta6
Polar name :        T1-30.0 m/s-VLM2
Freestream speed :  30.000 m/s


   alpha      Beta       CL          CDi        CDv        CD         CY         Cl         Cm         Cn        Cni       QInf        XCP
  -10.000     0.000  -0.454614   0.014665   0.013224   0.027889  -0.000000   0.000000   0.179089   0.000000   0.000000   30.0000     0.1783
   -9.500     0.000  -0.415563   0.012516   0.023695   0.036211  -0.000000   0.000000   0.173999   0.000000   0.000000   30.0000     0.1846
   -9.000     0.000  -0.376408   0.010569   0.026451   0.037019  -0.000000   0.000000   0.169133   0.000000   0.000000   30.0000     0.1922
   -8.500     0.000  -0.337157   0.008825   0.025333   0.034158  -0.000000   0.000000   0.164356   0.000000   0.000000   30.0000     0.2016
   -8.000     0.000  -0.297818   0.007288   0.027404   0.034691  -0.000000   0.000000   0.159435   0.000000   0.000000   30.0000     0.2135
   -7.500     0.000  -0.258401   0.005958   0.023117   0.029074  -0.000000   0.000000   0.154679   0.000000   0.000000   30.0000     0.2291
   -7.000     0.000  -0.218913   0.004837   0.022790   0.027627  -0.000000   0.000000   0.149757   0.000000   0.000000   30.0000     0.2505
   -6.500     0.000  -0.179363   0.003926   0.022426   0.026352  -0.000000   0.000000   0.144801   0.000000   0.000000   30.0000     0.2812
   -6.000     0.000  -0.139760   0.003227   0.021927   0.025154  -0.000000   0.000000   0.139813   0.000000   0.000000   30.0000     0.3295
   -5.500     0.000  -0.100113   0.002740   0.021407   0.024147  -0.000000   0.000000   0.134794   0.000000   0.000000   30.0000     0.4161
   -5.000     0.000  -0.060429   0.002467   0.020872   0.023340  -0.000000   0.000000   0.129743   0.000000   0.000000   30.0000     0.6166
   -4.500     0.000  -0.020717   0.002408   0.020342   0.022751  -0.000000   0.000000   0.124662  -0.000000  -0.000000   30.0000     1.5860
   -4.000     0.000   0.019014   0.002564   0.019814   0.022378   0.000000   0.000000   0.119553  -0.000000  -0.000000   30.0000    -1.4965
   -3.500     0.000   0.058754   0.002935   0.019274   0.022208   0.000000   0.000000   0.114415  -0.000000  -0.000000   30.0000    -0.4093
   -3.000     0.000   0.098497   0.003520   0.018509   0.022029   0.000000   0.000000   0.109255  -0.000000  -0.000000   30.0000    -0.1994
   -2.500     0.000   0.138232   0.004322   0.017683   0.022005   0.000000   0.000000   0.104070  -0.000000  -0.000000   30.0000    -0.1102
   -2.000     0.000   0.177952   0.005338   0.016853   0.022190   0.000000   0.000000   0.098863  -0.000000  -0.000000   30.0000    -0.0608
   -1.500     0.000   0.217647   0.006569   0.016257   0.022826   0.000000   0.000000   0.093633  -0.000000  -0.000000   30.0000    -0.0295
   -1.000     0.000   0.257310   0.008014   0.015790   0.023805   0.000000   0.000000   0.088382  -0.000000  -0.000000   30.0000    -0.0078
   -0.500     0.000   0.296930   0.009674   0.015509   0.025183   0.000000   0.000000   0.083109  -0.000000  -0.000000   30.0000     0.0081
    0.000     0.000   0.336500   0.011546   0.015945   0.027491   0.000000   0.000000   0.077804  -0.000000  -0.000000   30.0000     0.0203
    0.500     0.000   0.376012   0.013630   0.015720   0.029350   0.000000   0.000000   0.072501  -0.000000  -0.000000   30.0000     0.0299
    1.000     0.000   0.415456   0.015925   0.015472   0.031397   0.000000   0.000000   0.067187  -0.000000  -0.000000   30.0000     0.0377
    1.500     0.000   0.454824   0.018430   0.015196   0.033626   0.000000   0.000000   0.061861  -0.000000  -0.000000   30.0000     0.0441
    2.000     0.000   0.494107   0.021144   0.014764   0.035908   0.000000   0.000000   0.056530  -0.000000  -0.000000   30.0000     0.0495
    2.500     0.000   0.533298   0.024064   0.014605   0.038669   0.000000   0.000000   0.051183  -0.000000  -0.000000   30.0000     0.0541
    3.000     0.000   0.572387   0.027189   0.014343   0.041531   0.000000   0.000000   0.045833  -0.000000  -0.000000   30.0000     0.0581
    3.500     0.000   0.611366   0.030516   0.014101   0.044618   0.000000   0.000000   0.040476  -0.000000  -0.000000   30.0000     0.0616
    4.000     0.000   0.650227   0.034045   0.013993   0.048039   0.000000   0.000000   0.035113  -0.000000  -0.000000   30.0000     0.0647
    4.500     0.000   0.688962   0.037773   0.013897   0.051671   0.000000  -0.000000   0.029747  -0.000000  -0.000000   30.0000     0.0674
    5.000     0.000   0.727563   0.041697   0.014987   0.056684   0.000000  -0.000000   0.024357  -0.000000  -0.000000   30.0000     0.0699
    5.500     0.000   0.766020   0.045815   0.016111   0.061927   0.000000  -0.000000   0.018969  -0.000000  -0.000000   30.0000     0.0721
    6.000     0.000   0.804327   0.050125   0.016777   0.066902   0.000000   0.000000   0.013593  -0.000000  -0.000000   30.0000     0.0741
    6.500     0.000   0.842476   0.054622   0.017420   0.072042   0.000000   0.000000   0.008221  -0.000000  -0.000000   30.0000     0.0760
    7.000     0.000   0.880457   0.059305   0.017751   0.077056   0.000000  -0.000000   0.002861  -0.000000  -0.000000   30.0000     0.0777
    7.500     0.000   0.918265   0.064171   0.018438   0.082609   0.000000  -0.000000  -0.002499  -0.000000  -0.000000   30.0000     0.0792
    8.000     0.000   0.955890   0.069215   0.018753   0.087969   0.000000  -0.000000  -0.007843  -0.000000  -0.000000   30.0000     0.0807
    8.500     0.000   0.993325   0.074436   0.019122   0.093558   0.000000  -0.000000  -0.013179  -0.000000  -0.000000   30.0000     0.0820
    9.000     0.000   1.030563   0.079828   0.019797   0.099626   0.000000  -0.000000  -0.018507  -0.000000  -0.000000   30.0000     0.0833
    9.500     0.000   1.067596   0.085389   0.020226   0.105616   0.000000  -0.000000  -0.023818  -0.000000  -0.000000   30.0000     0.0844
   10.000     0.000   1.104417   0.091115   0.020765   0.111880   0.000000  -0.000000  -0.029117  -0.000000  -0.000000   30.0000     0.0856


