xflr5 v6.61

Plane name :        FunCub_Flaps100_Eta10
Polar name :        T1-14.0 m/s-VLM2-b15.0°
Freestream speed :  14.000 m/s


   alpha      Beta       CL          CDi        CDv        CD         CY         Cl         Cm         Cn        Cni       QInf        XCP
   -6.500    15.000   0.196235   0.040238   0.045414   0.085652  -0.094785  -0.019880  -0.176789   0.037148   0.036522   14.0000     0.3148
   -6.000    15.000   0.232928   0.041479   0.045038   0.086516  -0.096279  -0.019204  -0.186385   0.037837   0.037287   14.0000     0.2864
   -5.500    15.000   0.269552   0.042957   0.044936   0.087893  -0.097964  -0.018503  -0.195962   0.038647   0.038044   14.0000     0.2659
   -5.000    15.000   0.305991   0.044654   0.044622   0.089275  -0.099847  -0.017762  -0.205197   0.039403   0.038798   14.0000     0.2502
   -4.500    15.000   0.343558   0.046679   0.044137   0.090815  -0.101759  -0.017186  -0.217571   0.040150   0.039490   14.0000     0.2398
   -4.000    15.000   0.378211   0.048652   0.043886   0.092538  -0.104188  -0.016222  -0.223380   0.040973   0.040299   14.0000     0.2282


