xflr5 v6.61

Plane name :        FunCub_Flaps50
Polar name :        T1-30.0 m/s-VLM2
Freestream speed :  30.000 m/s


   alpha      Beta       CL          CDi        CDv        CD         CY         Cl         Cm         Cn        Cni       QInf        XCP
  -10.000     0.000  -0.573951   0.022389   0.014922   0.037312  -0.000000   0.000000   0.451957   0.000000   0.000000   30.0000     0.2788
   -9.500     0.000  -0.532339   0.019567   0.014405   0.033973  -0.000000   0.000000   0.441001   0.000000   0.000000   30.0000     0.2889
   -9.000     0.000  -0.490599   0.016962   0.031794   0.048756  -0.000000   0.000000   0.429338   0.000000   0.000000   30.0000     0.3007
   -8.500     0.000  -0.448740   0.014576   0.029744   0.044320  -0.000000   0.000000   0.418251   0.000000   0.000000   30.0000     0.3148
   -8.000     0.000  -0.406772   0.012412   0.030933   0.043345  -0.000000   0.000000   0.406962   0.000000   0.000000   30.0000     0.3318
   -7.500     0.000  -0.364702   0.010471   0.025578   0.036049  -0.000000   0.000000   0.395799   0.000000   0.000000   30.0000     0.3528
   -7.000     0.000  -0.322542   0.008755   0.023998   0.032753  -0.000000   0.000000   0.384424   0.000000   0.000000   30.0000     0.3794
   -6.500     0.000  -0.280298   0.007267   0.023588   0.030854  -0.000000   0.000000   0.372929   0.000000   0.000000   30.0000     0.4140
   -6.000     0.000  -0.237981   0.006007   0.023052   0.029059  -0.000000   0.000000   0.361357   0.000000   0.000000   30.0000     0.4610
   -5.500     0.000  -0.195600   0.004977   0.022468   0.027445  -0.000000   0.000000   0.349711   0.000000   0.000000   30.0000     0.5286
   -5.000     0.000  -0.153165   0.004179   0.021867   0.026045  -0.000000  -0.000000   0.337994   0.000000   0.000000   30.0000     0.6336
   -4.500     0.000  -0.110684   0.003613   0.021270   0.024882  -0.000000  -0.000000   0.326207   0.000000   0.000000   30.0000     0.8195
   -4.000     0.000  -0.068167   0.003280   0.020678   0.023958   0.000000  -0.000000   0.314355  -0.000000  -0.000000   30.0000     1.2374
   -3.500     0.000  -0.025623   0.003180   0.020079   0.023259   0.000000  -0.000000   0.302441  -0.000000  -0.000000   30.0000     3.0437
   -3.000     0.000   0.016939   0.003315   0.019319   0.022635   0.000000  -0.000000   0.290470  -0.000000  -0.000000   30.0000    -4.2283
   -2.500     0.000   0.059508   0.003685   0.018430   0.022115   0.000000  -0.000000   0.278444  -0.000000  -0.000000   30.0000    -1.0965
   -2.000     0.000   0.102076   0.004289   0.017512   0.021802   0.000000  -0.000000   0.266368  -0.000000  -0.000000   30.0000    -0.5768
   -1.500     0.000   0.144634   0.005129   0.016862   0.021990   0.000000  -0.000000   0.254240  -0.000000  -0.000000   30.0000    -0.3629
   -1.000     0.000   0.187171   0.006202   0.016342   0.022544   0.000000  -0.000000   0.242067  -0.000000  -0.000000   30.0000    -0.2463
   -0.500     0.000   0.229679   0.007510   0.015898   0.023408   0.000000  -0.000000   0.229851  -0.000000  -0.000000   30.0000    -0.1729
    0.000     0.000   0.272147   0.009051   0.016207   0.025259   0.000000  -0.000000   0.217578  -0.000000  -0.000000   30.0000    -0.1225
    0.500     0.000   0.314568   0.010825   0.016190   0.027015   0.000000  -0.000000   0.205281  -0.000000  -0.000000   30.0000    -0.0856
    1.000     0.000   0.356931   0.012831   0.015917   0.028748   0.000000  -0.000000   0.192959  -0.000000  -0.000000   30.0000    -0.0575
    1.500     0.000   0.399227   0.015067   0.015494   0.030561   0.000000  -0.000000   0.180614  -0.000000  -0.000000   30.0000    -0.0354
    2.000     0.000   0.441446   0.017533   0.015147   0.032680   0.000000  -0.000000   0.168243  -0.000000  -0.000000   30.0000    -0.0175
    2.500     0.000   0.483581   0.020227   0.014951   0.035178   0.000000  -0.000000   0.155849  -0.000000  -0.000000   30.0000    -0.0028
    3.000     0.000   0.525620   0.023147   0.014665   0.037812   0.000000  -0.000000   0.143440  -0.000000  -0.000000   30.0000     0.0096
    3.500     0.000   0.567557   0.026292   0.014399   0.040691   0.000000  -0.000000   0.131018  -0.000000  -0.000000   30.0000     0.0202
    4.000     0.000   0.609380   0.029659   0.014193   0.043852   0.000000  -0.000000   0.118585  -0.000000  -0.000000   30.0000     0.0293
    4.500     0.000   0.651081   0.033246   0.014140   0.047386   0.000000  -0.000000   0.106144  -0.000000  -0.000000   30.0000     0.0372
    5.000     0.000   0.692651   0.037051   0.015189   0.052240   0.000000  -0.000000   0.093678  -0.000000  -0.000000   30.0000     0.0442
    5.500     0.000   0.734082   0.041072   0.016280   0.057352   0.000000  -0.000000   0.081215  -0.000000  -0.000000   30.0000     0.0505
    6.000     0.000   0.775364   0.045306   0.016922   0.062229   0.000000  -0.000000   0.068768  -0.000000  -0.000000   30.0000     0.0560
    6.500     0.000   0.816489   0.049750   0.017538   0.067289   0.000000  -0.000000   0.056331  -0.000000  -0.000000   30.0000     0.0610
    7.000     0.000   0.857448   0.054401   0.017834   0.072235   0.000000  -0.000000   0.043914  -0.000000  -0.000000   30.0000     0.0655
    7.500     0.000   0.898232   0.059256   0.018516   0.077772   0.000000  -0.000000   0.031507  -0.000000  -0.000000   30.0000     0.0697
    8.000     0.000   0.938832   0.064311   0.018812   0.083123   0.000000  -0.000000   0.019127  -0.000000  -0.000000   30.0000     0.0734
    8.500     0.000   0.979242   0.069564   0.019161   0.088725   0.000000  -0.000000   0.006769  -0.000000  -0.000000   30.0000     0.0769
    9.000     0.000   1.019451   0.075010   0.019820   0.094831   0.000000  -0.000000  -0.005567  -0.000000  -0.000000   30.0000     0.0801
    9.500     0.000   1.059452   0.080646   0.020233   0.100880   0.000000  -0.000000  -0.017867  -0.000000  -0.000000   30.0000     0.0831
   10.000     0.000   1.099237   0.086468   0.020757   0.107225   0.000000  -0.000000  -0.030137  -0.000000  -0.000000   30.0000     0.0859


