xflr5 v6.61

Plane name :        FunCub_Flaps100
Polar name :        T1-10.0 m/s-VLM2-b15.0°
Freestream speed :  10.000 m/s


   alpha      Beta       CL          CDi        CDv        CD         CY         Cl         Cm         Cn        Cni       QInf        XCP
   -6.500    15.000   0.005207   0.040720   0.049689   0.090410  -0.094362  -0.001925   0.247733   0.037390   0.036524   10.0000  -112.4408
   -6.000    15.000   0.042198   0.040673   0.048961   0.089634  -0.095131  -0.001192   0.239246   0.037906   0.037188   10.0000    -1.5423
   -5.500    15.000   0.079131   0.040873   0.048800   0.089673  -0.096118  -0.000439   0.230629   0.038574   0.037853   10.0000    -0.7080
   -5.000    15.000   0.115991   0.041315   0.048284   0.089599  -0.097318   0.000336   0.221963   0.039270   0.038519   10.0000    -0.4272
   -4.500    15.000   0.152765   0.041989   0.047869   0.089858  -0.098722   0.001130   0.213233   0.039962   0.039185   10.0000    -0.2863
   -4.000    15.000   0.189444   0.042880   0.047594   0.090474  -0.100311   0.001944   0.204452   0.040576   0.039851   10.0000    -0.2016
   -3.500    15.000   0.226023   0.043966   0.047464   0.091431  -0.102061   0.002777   0.195630   0.041226   0.040517   10.0000    -0.1451


