xflr5 v6.61

Plane name :        FunCub
Polar name :        T1-14.0 m/s-VLM2-2.6kg-x0.3m
Freestream speed :  14.000 m/s


   alpha      Beta       CL          CDi        CDv        CD         CY         Cl         Cm         Cn        Cni       QInf        XCP
   -9.500     0.000  -0.694427   0.035604   0.110850   0.146454  -0.000000   0.000000   0.149740   0.000000   0.000000   14.0000     0.1337
   -9.000     0.000  -0.652717   0.031637   0.051328   0.082964  -0.000000   0.000000   0.143309   0.000000   0.000000   14.0000     0.1342
   -8.500     0.000  -0.610852   0.027892   0.027370   0.055262  -0.000000   0.000000   0.136284   0.000000   0.000000   14.0000     0.1348
   -8.000     0.000  -0.568839   0.024373   0.025767   0.050141  -0.000000   0.000000   0.128897   0.000000   0.000000   14.0000     0.1355
   -7.500     0.000  -0.526690   0.021083   0.024708   0.045791  -0.000000   0.000000   0.121461   0.000000   0.000000   14.0000     0.1364
   -7.000     0.000  -0.484412   0.018024   0.023785   0.041810  -0.000000   0.000000   0.113983   0.000000   0.000000   14.0000     0.1374
   -6.500     0.000  -0.442016   0.015199   0.022957   0.038157  -0.000000   0.000000   0.106466   0.000000   0.000000   14.0000     0.1386
   -6.000     0.000  -0.399511   0.012610   0.022173   0.034784  -0.000000   0.000000   0.098911   0.000000   0.000000   14.0000     0.1402
   -5.500     0.000  -0.356906   0.010259   0.021448   0.031708  -0.000000   0.000000   0.091322   0.000000   0.000000   14.0000     0.1421
   -5.000     0.000  -0.314211   0.008149   0.020713   0.028862  -0.000000   0.000000   0.083702   0.000000   0.000000   14.0000     0.1445
   -4.500     0.000  -0.271435   0.006280   0.020031   0.026310  -0.000000   0.000000   0.076052   0.000000   0.000000   14.0000     0.1478
   -4.000     0.000  -0.228588   0.004654   0.019487   0.024141  -0.000000   0.000000   0.068373   0.000000   0.000000   14.0000     0.1523
   -3.500     0.000  -0.185679   0.003273   0.018833   0.022106  -0.000000   0.000000   0.060671   0.000000   0.000000   14.0000     0.1590
   -3.000     0.000  -0.142719   0.002138   0.018124   0.020261  -0.000000   0.000000   0.052947   0.000000   0.000000   14.0000     0.1697
   -2.500     0.000  -0.099717   0.001250   0.017335   0.018585  -0.000000   0.000000   0.045204   0.000000  -0.000000   14.0000     0.1897
   -2.000     0.000  -0.056683   0.000609   0.015780   0.016388   0.000000   0.000000   0.037449   0.000000  -0.000000   14.0000     0.2401
   -1.500     0.000  -0.013627   0.000216   0.014314   0.014530   0.000000   0.000000   0.029677  -0.000000  -0.000000   14.0000     0.6091
   -1.000     0.000   0.029442   0.000073   0.013907   0.013980   0.000000  -0.000000   0.021884  -0.000000  -0.000000   14.0000    -0.1016
   -0.500     0.000   0.072515   0.000178   0.013824   0.014001   0.000000  -0.000000   0.014079  -0.000000  -0.000000   14.0000     0.0319
    0.000     0.000   0.115580   0.000532   0.013893   0.014425   0.000000  -0.000000   0.006266  -0.000000  -0.000000   14.0000     0.0660
    0.500     0.000   0.158628   0.001135   0.014010   0.015145   0.000000  -0.000000  -0.001552  -0.000000  -0.000000   14.0000     0.0815
    1.000     0.000   0.201650   0.001986   0.014141   0.016127   0.000000  -0.000000  -0.009372  -0.000000  -0.000000   14.0000     0.0904
    1.500     0.000   0.244635   0.003085   0.014252   0.017337   0.000000  -0.000000  -0.017193  -0.000000  -0.000000   14.0000     0.0962
    2.000     0.000   0.287575   0.004431   0.014353   0.018784   0.000000  -0.000000  -0.025011  -0.000000  -0.000000   14.0000     0.1003
    2.500     0.000   0.330458   0.006024   0.014421   0.020445   0.000000  -0.000000  -0.032824  -0.000000  -0.000000   14.0000     0.1033
    3.000     0.000   0.373276   0.007862   0.014467   0.022329   0.000000  -0.000000  -0.040629  -0.000000  -0.000000   14.0000     0.1057
    3.500     0.000   0.416019   0.009944   0.014520   0.024464   0.000000  -0.000000  -0.048424  -0.000000  -0.000000   14.0000     0.1075
    4.000     0.000   0.458677   0.012268   0.014626   0.026894   0.000000  -0.000000  -0.056208  -0.000000  -0.000000   14.0000     0.1091
    4.500     0.000   0.501241   0.014833   0.014819   0.029652   0.000000  -0.000000  -0.063977  -0.000000  -0.000000   14.0000     0.1104
    5.000     0.000   0.543700   0.017637   0.015111   0.032748   0.000000  -0.000000  -0.071730  -0.000000  -0.000000   14.0000     0.1115
    5.500     0.000   0.586046   0.020678   0.015475   0.036153   0.000000  -0.000000  -0.079463  -0.000000  -0.000000   14.0000     0.1124
    6.000     0.000   0.628270   0.023954   0.015881   0.039835   0.000000  -0.000000  -0.087174  -0.000000  -0.000000   14.0000     0.1133
    6.500     0.000   0.670360   0.027462   0.016311   0.043773   0.000000  -0.000000  -0.094860  -0.000000  -0.000000   14.0000     0.1140
    7.000     0.000   0.712310   0.031199   0.016738   0.047938   0.000000  -0.000000  -0.102519  -0.000000  -0.000000   14.0000     0.1147
    7.500     0.000   0.754108   0.035164   0.017179   0.052343   0.000000  -0.000000  -0.110150  -0.000000  -0.000000   14.0000     0.1153
    8.000     0.000   0.795747   0.039353   0.017619   0.056972   0.000000  -0.000000  -0.117749  -0.000000  -0.000000   14.0000     0.1159
    8.500     0.000   0.837216   0.043764   0.018057   0.061821   0.000000  -0.000000  -0.125314  -0.000000  -0.000000   14.0000     0.1164
    9.000     0.000   0.878507   0.048391   0.018493   0.066885   0.000000  -0.000000  -0.132843  -0.000000  -0.000000   14.0000     0.1169
    9.500     0.000   0.919612   0.053234   0.018944   0.072178   0.000000  -0.000000  -0.140334  -0.000000  -0.000000   14.0000     0.1173
   10.000     0.000   0.960520   0.058287   0.019394   0.077681   0.000000  -0.000000  -0.147785  -0.000000  -0.000000   14.0000     0.1178


